feeders/Owen Burlington/main.glm
clock {
timezone PST+8PDT;
stoptime '2000-01-02 00:00:00';
starttime '2000-01-01 00:00:00';
};

#set minimum_timestep=60;
#set profiler=1;
#set relax_naming_rules=1;
module generators;
module tape;
module climate;
module residential {
implicit_enduses NONE;
};

module powerflow {
solver_method FBS;
NR_iteration_limit 50;
};

object climate {
name Climate;
interpolate QUADRATIC;
tmyfile climate.tmy2;
};

object node {
phases 7N;
name BURLINGTON;
bustype SWING;
nominal_voltage 7200.0;
};

object overhead_line {
configuration object line_configuration {
spacing object line_spacing {
name 21003-LINESPACING;
};
name 21003-LINECONFIG;
conductor_N object overhead_line_conductor {
resistance 0.303;
geometric_mean_radius 0.0221;
};
};
phases 7N;
from BURLINGTON;
name 21003;
to node2101121003;
length 20.6237;
};

object overhead_line {
configuration object line_configuration {
spacing object line_spacing {
name 21011-LINESPACING;
};
name 21011-LINECONFIG;
conductor_N object overhead_line_conductor {
resistance 0.303;
geometric_mean_radius 0.0221;
};
};
phases 7N;
from node2101121003;
name 21011;
to node6830421011;
length 13.0755;
};

object overhead_line {
configuration object line_configuration {
spacing object line_spacing {
name 68304-LINESPACING;
};
name 68304-LINECONFIG;
conductor_N object overhead_line_conductor {
resistance 0.303;
geometric_mean_radius 0.0221;
};
};
phases 7N;
from node6830421011;
name 68304;
to node6830568304;
length 14.8233;
};

object overhead_line {
configuration object line_configuration {
spacing object line_spacing {
name 68302-LINESPACING;
};
name 68302-LINECONFIG;
conductor_N object overhead_line_conductor {
resistance 0.303;
geometric_mean_radius 0.0221;
};
};
phases 7N;
from node6830421011;
name 68302;
to node6830368302;
length 8.15102;
};

object overhead_line {
configuration object line_configuration {
spacing object line_spacing {
name 68300-LINESPACING;
};
name 68300-LINECONFIG;
conductor_N object overhead_line_conductor {
resistance 0.303;
geometric_mean_radius 0.0221;
};
};
phases 7N;
from node6830421011;
name 68300;
to node6830168300;
length 8.42273;
};

object overhead_line {
configuration object line_configuration {
spacing object line_spacing {
name 68298-LINESPACING;
};
name 68298-LINECONFIG;
conductor_N object overhead_line_conductor {
resistance 0.303;
geometric_mean_radius 0.0221;
};
};
phases 7N;
from node6830421011;
name 68298;
to node6829968298;
length 19.0913;
};

object overhead_line {
configuration object line_configuration {
spacing object line_spacing {
name 68299-LINESPACING;
};
name 68299-LINECONFIG;
conductor_N object overhead_line_conductor {
resistance 0.303;
geometric_mean_radius 0.0221;
};
};
phases 7N;
from node6829968298;
name 68299;
to nodeR118268299;
length 24.3563;
};

object fuse {
phases 7N;
from nodeR118268299;
name R1182;
current_limit 9999.0 A;
to node20944R1182;
};

object overhead_line {
configuration object line_configuration {
spacing object line_spacing {
name 20944-LINESPACING;
};
name 20944-LINECONFIG;
conductor_N object overhead_line_conductor {
resistance 0.303;
geometric_mean_radius 0.0221;
};
};
phases 7N;
from node20944R1182;
name 20944;
to node2083720944;
length 82.2659;
};

object overhead_line {
configuration object line_configuration {
spacing object line_spacing {
name 20837-LINESPACING;
};
name 20837-LINECONFIG;
conductor_N object overhead_line_conductor {
resistance 0.303;
geometric_mean_radius 0.0221;
};
};
phases 7N;
from node2083720944;
name 20837;
to node2088120837;
length 87.5465;
};

object overhead_line {
configuration object line_configuration {
spacing object line_spacing {
name 20881-LINESPACING;
};
name 20881-LINECONFIG;
conductor_N object overhead_line_conductor {
resistance 0.303;
geometric_mean_radius 0.0221;
};
};
phases 7N;
from node2088120837;
name 20881;
to node2044520881;
length 281.156;
};

object overhead_line {
configuration object line_configuration {
spacing object line_spacing {
name 20445-LINESPACING;
};
name 20445-LINECONFIG;
conductor_N object overhead_line_conductor {
resistance 0.303;
geometric_mean_radius 0.0221;
};
};
phases 7N;
from node2044520881;
name 20445;
to node2054920445;
length 465.786;
};

object overhead_line {
configuration object line_configuration {
spacing object line_spacing {
name 20549-LINESPACING;
};
name 20549-LINECONFIG;
conductor_N object overhead_line_conductor {
resistance 0.303;
geometric_mean_radius 0.0221;
};
};
phases 7N;
from node2054920445;
name 20549;
to node2036920549;
length 212.612;
};

object overhead_line {
configuration object line_configuration {
spacing object line_spacing {
name 20369-LINESPACING;
};
name 20369-LINECONFIG;
conductor_N object overhead_line_conductor {
resistance 0.303;
geometric_mean_radius 0.0221;
};
};
phases 7N;
from node2036920549;
name 20369;
to node2050620369;
length 302.735;
};

object overhead_line {
configuration object line_configuration {
spacing object line_spacing {
name 20506-LINESPACING;
};
name 20506-LINECONFIG;
conductor_N object overhead_line_conductor {
resistance 0.303;
geometric_mean_radius 0.0221;
};
};
phases 7N;
from node2050620369;
name 20506;
to node2036720506;
length 178.526;
};

object overhead_line {
configuration object line_configuration {
spacing object line_spacing {
name 20367-LINESPACING;
};
name 20367-LINECONFIG;
conductor_N object overhead_line_conductor {
resistance 0.303;
geometric_mean_radius 0.0221;
};
};
phases 7N;
from node2036720506;
name 20367;
to nodeT6246302788020367;
length 144.103;
};

object transformer {
configuration object transformer_configuration {
powerC_rating 50 kVA;
name T62463027880-CONFIG;
shunt_impedance 10000+10000j;
secondary_voltage 120.0;
connect_type SINGLE_PHASE_CENTER_TAPPED;
impedance 0.00033+0.0022j;
primary_voltage 7200.0;
powerB_rating 50 kVA;
powerA_rating 50 kVA;
};
phases 2N;
from nodeT6246302788020367;
name T62463027880;
to node62463027798T62463027880;
};

object load {
phases 2N;
load_class R;
name 62463027798;
parent node62463027798T62463027880;
constant_power_C 0;
constant_power_A 0;
nominal_voltage 120;
constant_power_B 0.698961;
};

object overhead_line {
configuration object line_configuration {
spacing object line_spacing {
name 20286-LINESPACING;
};
name 20286-LINECONFIG;
conductor_N object overhead_line_conductor {
resistance 0.303;
geometric_mean_radius 0.0221;
};
};
phases 7N;
from nodeT6246302788020367;
name 20286;
to node2024820286;
length 266.66;
};

object overhead_line {
configuration object line_configuration {
spacing object line_spacing {
name 20248-LINESPACING;
};
name 20248-LINECONFIG;
conductor_N object overhead_line_conductor {
resistance 0.303;
geometric_mean_radius 0.0221;
};
};
phases 7N;
from node2024820286;
name 20248;
to node2014520248;
length 153.517;
};

object overhead_line {
configuration object line_configuration {
spacing object line_spacing {
name 20145-LINESPACING;
};
name 20145-LINECONFIG;
conductor_N object overhead_line_conductor {
resistance 0.303;
geometric_mean_radius 0.0221;
};
};
phases 7N;
from node2014520248;
name 20145;
to nodeT6246302460920145;
length 357.003;
};

object overhead_line {
configuration object line_configuration {
spacing object line_spacing {
name 20129-LINESPACING;
};
name 20129-LINECONFIG;
conductor_N object overhead_line_conductor {
resistance 1.69;
geometric_mean_radius 0.00418;
};
};
phases 1N;
from nodeT6246302460920145;
name 20129;
to nodeF894420129;
length 27.7071;
};

object fuse {
phases 1N;
from nodeF894420129;
name F8944;
current_limit 9999.0 A;
to node20130F8944;
};

object overhead_line {
configuration object line_configuration {
spacing object line_spacing {
name 20130-LINESPACING;
};
name 20130-LINECONFIG;
conductor_N object overhead_line_conductor {
resistance 1.69;
geometric_mean_radius 0.00418;
};
};
phases 1N;
from node20130F8944;
name 20130;
to nodeT6246302377520130;
length 103.665;
};

object transformer {
configuration object transformer_configuration {
powerC_rating 50 kVA;
name T62463023775-CONFIG;
shunt_impedance 10000+10000j;
secondary_voltage 120.0;
connect_type SINGLE_PHASE_CENTER_TAPPED;
impedance 0.00033+0.0022j;
primary_voltage 7200.0;
powerB_rating 50 kVA;
powerA_rating 50 kVA;
};
phases 1N;
from nodeT6246302377520130;
name T62463023775;
to node62463024800T62463023775;
};

object load {
phases 1N;
load_class R;
name 62463024800;
parent node62463024800T62463023775;
constant_power_C 0;
constant_power_A 6.07365;
nominal_voltage 120;
constant_power_B 0;
};

object load {
phases 1N;
load_class R;
name 62463023758;
parent node62463024800T62463023775;
constant_power_C 0;
constant_power_A 0.880641;
nominal_voltage 120;
constant_power_B 0;
};

object overhead_line {
configuration object line_configuration {
spacing object line_spacing {
name 20050-LINESPACING;
};
name 20050-LINECONFIG;
conductor_N object overhead_line_conductor {
resistance 0.303;
geometric_mean_radius 0.0221;
};
};
phases 7N;
from nodeT6246302460920145;
name 20050;
to nodeT6246302267620050;
length 287.2;
};

object transformer {
configuration object transformer_configuration {
powerC_rating 50 kVA;
name T62463022676-CONFIG;
shunt_impedance 10000+10000j;
secondary_voltage 120.0;
connect_type SINGLE_PHASE_CENTER_TAPPED;
impedance 0.00033+0.0022j;
primary_voltage 7200.0;
powerB_rating 50 kVA;
powerA_rating 50 kVA;
};
phases 2N;
from nodeT6246302267620050;
name T62463022676;
to node62463022720T62463022676;
};

object load {
phases 2N;
load_class R;
name 62463022720;
parent node62463022720T62463022676;
constant_power_C 0;
constant_power_A 0;
nominal_voltage 120;
constant_power_B 4.54703;
};

object overhead_line {
configuration object line_configuration {
spacing object line_spacing {
name 19663-LINESPACING;
};
name 19663-LINECONFIG;
conductor_N object overhead_line_conductor {
resistance 0.303;
geometric_mean_radius 0.0221;
};
};
phases 7N;
from nodeT6246302267620050;
name 19663;
to nodeT6246302166319663;
length 211.226;
};

object transformer {
configuration object transformer_configuration {
powerC_rating 50 kVA;
name T62463021663-CONFIG;
shunt_impedance 10000+10000j;
secondary_voltage 120.0;
connect_type SINGLE_PHASE_CENTER_TAPPED;
impedance 0.00033+0.0022j;
primary_voltage 7200.0;
powerB_rating 50 kVA;
powerA_rating 50 kVA;
};
phases 3N;
from nodeT6246302166319663;
name T62463021663;
to node62463021692T62463021663;
};

object load {
phases 3N;
load_class R;
name 62463021692;
parent node62463021692T62463021663;
constant_power_C 0.0731765;
constant_power_A 0;
nominal_voltage 120;
constant_power_B 0;
};

object overhead_line {
configuration object line_configuration {
spacing object line_spacing {
name 19935-LINESPACING;
};
name 19935-LINECONFIG;
conductor_N object overhead_line_conductor {
resistance 0.303;
geometric_mean_radius 0.0221;
};
};
phases 7N;
from nodeT6246302166319663;
name 19935;
to nodeT6246302067019935;
length 194.654;
};

object transformer {
configuration object transformer_configuration {
powerC_rating 50 kVA;
name T62463020670-CONFIG;
shunt_impedance 10000+10000j;
secondary_voltage 120.0;
connect_type SINGLE_PHASE_CENTER_TAPPED;
impedance 0.00033+0.0022j;
primary_voltage 7200.0;
powerB_rating 50 kVA;
powerA_rating 50 kVA;
};
phases 2N;
from nodeT6246302067019935;
name T62463020670;
to node62463020586T62463020670;
};

object load {
phases 2N;
load_class R;
name 62463020586;
parent node62463020586T62463020670;
constant_power_C 0;
constant_power_A 0;
nominal_voltage 120;
constant_power_B 4.16349;
};

object overhead_line {
configuration object line_configuration {
spacing object line_spacing {
name 19597-LINESPACING;
};
name 19597-LINECONFIG;
conductor_N object overhead_line_conductor {
resistance 0.303;
geometric_mean_radius 0.0221;
};
};
phases 7N;
from nodeT6246302067019935;
name 19597;
to node1985219597;
length 222.044;
};

object overhead_line {
configuration object line_configuration {
spacing object line_spacing {
name 19852-LINESPACING;
};
name 19852-LINECONFIG;
conductor_N object overhead_line_conductor {
resistance 0.303;
geometric_mean_radius 0.0221;
};
};
phases 7N;
from node1985219597;
name 19852;
to nodeT6246301941419852;
length 273.49;
};

object transformer {
configuration object transformer_configuration {
powerC_rating 50 kVA;
name T62463019414-CONFIG;
shunt_impedance 10000+10000j;
secondary_voltage 120.0;
connect_type SINGLE_PHASE_CENTER_TAPPED;
impedance 0.00033+0.0022j;
primary_voltage 7200.0;
powerB_rating 50 kVA;
powerA_rating 50 kVA;
};
phases 1N;
from nodeT6246301941419852;
name T62463019414;
to node62463019437T62463019414;
};

object load {
phases 1N;
load_class R;
name 62463019437;
parent node62463019437T62463019414;
constant_power_C 0;
constant_power_A 5.57655;
nominal_voltage 120;
constant_power_B 0;
};

object overhead_line {
configuration object line_configuration {
spacing object line_spacing {
name 19850-LINESPACING;
};
name 19850-LINECONFIG;
conductor_N object overhead_line_conductor {
resistance 1.69;
geometric_mean_radius 0.00418;
};
};
phases 3N;
from nodeT6246301941419852;
name 19850;
to nodeF757319850;
length 26.5061;
};

object fuse {
phases 3N;
from nodeF757319850;
name F7573;
current_limit 9999.0 A;
to node19851F7573;
};

object overhead_line {
configuration object line_configuration {
spacing object line_spacing {
name 19851-LINESPACING;
};
name 19851-LINECONFIG;
conductor_N object overhead_line_conductor {
resistance 1.69;
geometric_mean_radius 0.00418;
};
};
phases 3N;
from node19851F7573;
name 19851;
to nodeT6246301946719851;
length 80.8867;
};

object transformer {
configuration object transformer_configuration {
powerC_rating 50 kVA;
name T62463019467-CONFIG;
shunt_impedance 10000+10000j;
secondary_voltage 120.0;
connect_type SINGLE_PHASE_CENTER_TAPPED;
impedance 0.00033+0.0022j;
primary_voltage 7200.0;
powerB_rating 50 kVA;
powerA_rating 50 kVA;
};
phases 3N;
from nodeT6246301946719851;
name T62463019467;
to node62463019498T62463019467;
};

object load {
phases 3N;
load_class R;
name 62463019498;
parent node62463019498T62463019467;
constant_power_C 1.51904;
constant_power_A 0;
nominal_voltage 120;
constant_power_B 0;
};

object overhead_line {
configuration object line_configuration {
spacing object line_spacing {
name 19848-LINESPACING;
};
name 19848-LINECONFIG;
conductor_N object overhead_line_conductor {
resistance 1.69;
geometric_mean_radius 0.00418;
};
};
phases 3N;
from nodeT6246301941419852;
name 19848;
to nodeF794419848;
length 28.1181;
};

object fuse {
phases 3N;
from nodeF794419848;
name F7944;
current_limit 9999.0 A;
to node19849F7944;
};

object overhead_line {
configuration object line_configuration {
spacing object line_spacing {
name 19849-LINESPACING;
};
name 19849-LINECONFIG;
conductor_N object overhead_line_conductor {
resistance 1.69;
geometric_mean_radius 0.00418;
};
};
phases 3N;
from node19849F7944;
name 19849;
to node1959219849;
length 241.85;
};

object overhead_line {
configuration object line_configuration {
spacing object line_spacing {
name 19592-LINESPACING;
};
name 19592-LINECONFIG;
conductor_N object overhead_line_conductor {
resistance 1.69;
geometric_mean_radius 0.00418;
};
};
phases 3N;
from node1959219849;
name 19592;
to node1996419592;
length 320.096;
};

object overhead_line {
configuration object line_configuration {
spacing object line_spacing {
name 19964-LINESPACING;
};
name 19964-LINECONFIG;
conductor_N object overhead_line_conductor {
resistance 1.69;
geometric_mean_radius 0.00418;
};
};
phases 3N;
from node1996419592;
name 19964;
to nodeT6246302228919964;
length 319.967;
};

object transformer {
configuration object transformer_configuration {
powerC_rating 50 kVA;
name T62463022289-CONFIG;
shunt_impedance 10000+10000j;
secondary_voltage 120.0;
connect_type SINGLE_PHASE_CENTER_TAPPED;
impedance 0.00033+0.0022j;
primary_voltage 7200.0;
powerB_rating 50 kVA;
powerA_rating 50 kVA;
};
phases 3N;
from nodeT6246302228919964;
name T62463022289;
to node62463022298T62463022289;
};

object load {
phases 3N;
load_class R;
name 62463022298;
parent node62463022298T62463022289;
constant_power_C 1.6553;
constant_power_A 0;
nominal_voltage 120;
constant_power_B 0;
};

object overhead_line {
configuration object line_configuration {
spacing object line_spacing {
name 20061-LINESPACING;
};
name 20061-LINECONFIG;
conductor_N object overhead_line_conductor {
resistance 1.69;
geometric_mean_radius 0.00418;
};
};
phases 3N;
from nodeT6246302228919964;
name 20061;
to node2013220061;
length 203.088;
};

object overhead_line {
configuration object line_configuration {
spacing object line_spacing {
name 20132-LINESPACING;
};
name 20132-LINECONFIG;
conductor_N object overhead_line_conductor {
resistance 1.69;
geometric_mean_radius 0.00418;
};
};
phases 3N;
from node2013220061;
name 20132;
to nodeT6246302425720132;
length 158.947;
};

object transformer {
configuration object transformer_configuration {
powerC_rating 50 kVA;
name T62463024257-CONFIG;
shunt_impedance 10000+10000j;
secondary_voltage 120.0;
connect_type SINGLE_PHASE_CENTER_TAPPED;
impedance 0.00033+0.0022j;
primary_voltage 7200.0;
powerB_rating 50 kVA;
powerA_rating 50 kVA;
};
phases 3N;
from nodeT6246302425720132;
name T62463024257;
to node62463025237T62463024257;
};

object load {
phases 3N;
load_class R;
name 62463025237;
parent node62463025237T62463024257;
constant_power_C 10.1337;
constant_power_A 0;
nominal_voltage 120;
constant_power_B 0;
};

object overhead_line {
configuration object line_configuration {
spacing object line_spacing {
name 19837-LINESPACING;
};
name 19837-LINECONFIG;
conductor_N object overhead_line_conductor {
resistance 1.69;
geometric_mean_radius 0.00418;
};
};
phases 1N;
from nodeT6246301941419852;
name 19837;
to nodeF758219837;
length 24.9997;
};

object fuse {
phases 1N;
from nodeF758219837;
name F7582;
current_limit 9999.0 A;
to node19770F7582;
};

object overhead_line {
configuration object line_configuration {
spacing object line_spacing {
name 19770-LINESPACING;
};
name 19770-LINECONFIG;
conductor_N object overhead_line_conductor {
resistance 1.69;
geometric_mean_radius 0.00418;
};
};
phases 1N;
from node19770F7582;
name 19770;
to nodeT6246301747919770;
length 260.872;
};

object transformer {
configuration object transformer_configuration {
powerC_rating 50 kVA;
name T62463017479-CONFIG;
shunt_impedance 10000+10000j;
secondary_voltage 120.0;
connect_type SINGLE_PHASE_CENTER_TAPPED;
impedance 0.00033+0.0022j;
primary_voltage 7200.0;
powerB_rating 50 kVA;
powerA_rating 50 kVA;
};
phases 1N;
from nodeT6246301747919770;
name T62463017479;
to node62463018503T62463017479;
};

object load {
phases 1N;
load_class R;
name 62463018503;
parent node62463018503T62463017479;
constant_power_C 0;
constant_power_A 6.3386;
nominal_voltage 120;
constant_power_B 0;
};

object overhead_line {
configuration object line_configuration {
spacing object line_spacing {
name 19750-LINESPACING;
};
name 19750-LINECONFIG;
conductor_N object overhead_line_conductor {
resistance 1.69;
geometric_mean_radius 0.00418;
};
};
phases 1N;
from nodeT6246301747919770;
name 19750;
to nodeT6246301745119750;
length 174.815;
};

object transformer {
configuration object transformer_configuration {
powerC_rating 50 kVA;
name T62463017451-CONFIG;
shunt_impedance 10000+10000j;
secondary_voltage 120.0;
connect_type SINGLE_PHASE_CENTER_TAPPED;
impedance 0.00033+0.0022j;
primary_voltage 7200.0;
powerB_rating 50 kVA;
powerA_rating 50 kVA;
};
phases 1N;
from nodeT6246301745119750;
name T62463017451;
to node62463017349T62463017451;
};

object load {
phases 1N;
load_class R;
name 62463017349;
parent node62463017349T62463017451;
constant_power_C 0;
constant_power_A 0.0605598;
nominal_voltage 120;
constant_power_B 0;
};

object load {
phases 1N;
load_class R;
name 62463017481;
parent node62463017349T62463017451;
constant_power_C 0;
constant_power_A 3.48976;
nominal_voltage 120;
constant_power_B 0;
};

object overhead_line {
configuration object line_configuration {
spacing object line_spacing {
name 19583-LINESPACING;
};
name 19583-LINECONFIG;
conductor_N object overhead_line_conductor {
resistance 1.69;
geometric_mean_radius 0.00418;
};
};
phases 1N;
from nodeT6246301747919770;
name 19583;
to nodeT6246301555719583;
length 467.84;
};

object transformer {
configuration object transformer_configuration {
powerC_rating 50 kVA;
name T62463015557-CONFIG;
shunt_impedance 10000+10000j;
secondary_voltage 120.0;
connect_type SINGLE_PHASE_CENTER_TAPPED;
impedance 0.00033+0.0022j;
primary_voltage 7200.0;
powerB_rating 50 kVA;
powerA_rating 50 kVA;
};
phases 1N;
from nodeT6246301555719583;
name T62463015557;
to node62463016405T62463015557;
};

object load {
phases 1N;
load_class R;
name 62463016405;
parent node62463016405T62463015557;
constant_power_C 0;
constant_power_A 4.20638;
nominal_voltage 120;
constant_power_B 0;
};

object load {
phases 1N;
load_class R;
name 62463014593;
parent node62463016405T62463015557;
constant_power_C 0;
constant_power_A 5.09964;
nominal_voltage 120;
constant_power_B 0;
};

object overhead_line {
configuration object line_configuration {
spacing object line_spacing {
name 19342-LINESPACING;
};
name 19342-LINECONFIG;
conductor_N object overhead_line_conductor {
resistance 1.69;
geometric_mean_radius 0.00418;
};
};
phases 1N;
from nodeT6246301555719583;
name 19342;
to nodeT6246301357619342;
length 372.94;
};

object transformer {
configuration object transformer_configuration {
powerC_rating 50 kVA;
name T62463013576-CONFIG;
shunt_impedance 10000+10000j;
secondary_voltage 120.0;
connect_type SINGLE_PHASE_CENTER_TAPPED;
impedance 0.00033+0.0022j;
primary_voltage 7200.0;
powerB_rating 50 kVA;
powerA_rating 50 kVA;
};
phases 1N;
from nodeT6246301357619342;
name T62463013576;
to node62463013691T62463013576;
};

object load {
phases 1N;
load_class R;
name 62463013691;
parent node62463013691T62463013576;
constant_power_C 0;
constant_power_A 0.156446;
nominal_voltage 120;
constant_power_B 0;
};

object overhead_line {
configuration object line_configuration {
spacing object line_spacing {
name 19399-LINESPACING;
};
name 19399-LINECONFIG;
conductor_N object overhead_line_conductor {
resistance 1.69;
geometric_mean_radius 0.00418;
};
};
phases 1N;
from nodeT6246301357619342;
name 19399;
to nodeT6246301254019399;
length 288.845;
};

object transformer {
configuration object transformer_configuration {
powerC_rating 50 kVA;
name T62463012540-CONFIG;
shunt_impedance 10000+10000j;
secondary_voltage 120.0;
connect_type SINGLE_PHASE_CENTER_TAPPED;
impedance 0.00033+0.0022j;
primary_voltage 7200.0;
powerB_rating 50 kVA;
powerA_rating 50 kVA;
};
phases 1N;
from nodeT6246301254019399;
name T62463012540;
to node62463012543T62463012540;
};

object load {
phases 1N;
load_class R;
name 62463012543;
parent node62463012543T62463012540;
constant_power_C 0;
constant_power_A 7.22428;
nominal_voltage 120;
constant_power_B 0;
};

object overhead_line {
configuration object line_configuration {
spacing object line_spacing {
name 19584-LINESPACING;
};
name 19584-LINECONFIG;
conductor_N object overhead_line_conductor {
resistance 1.69;
geometric_mean_radius 0.00418;
};
};
phases 1N;
from nodeT6246301555719583;
name 19584;
to node1948319584;
length 235.1;
};

object overhead_line {
configuration object line_configuration {
spacing object line_spacing {
name 19483-LINESPACING;
};
name 19483-LINECONFIG;
conductor_N object overhead_line_conductor {
resistance 1.69;
geometric_mean_radius 0.00418;
};
};
phases 1N;
from node1948319584;
name 19483;
to nodeT6246301473419483;
length 316.703;
};

object transformer {
configuration object transformer_configuration {
powerC_rating 50 kVA;
name T62463014734-CONFIG;
shunt_impedance 10000+10000j;
secondary_voltage 120.0;
connect_type SINGLE_PHASE_CENTER_TAPPED;
impedance 0.00033+0.0022j;
primary_voltage 7200.0;
powerB_rating 50 kVA;
powerA_rating 50 kVA;
};
phases 1N;
from nodeT6246301473419483;
name T62463014734;
to node62463014628T62463014734;
};

object load {
phases 1N;
load_class R;
name 62463014628;
parent node62463014628T62463014734;
constant_power_C 0;
constant_power_A 1.36007;
nominal_voltage 120;
constant_power_B 0;
};

object load {
phases 1N;
load_class R;
name 62463014757;
parent node62463014628T62463014734;
constant_power_C 0;
constant_power_A 4.81198;
nominal_voltage 120;
constant_power_B 0;
};

object overhead_line {
configuration object line_configuration {
spacing object line_spacing {
name 19474-LINESPACING;
};
name 19474-LINECONFIG;
conductor_N object overhead_line_conductor {
resistance 1.69;
geometric_mean_radius 0.00418;
};
};
phases 1N;
from nodeT6246301473419483;
name 19474;
to nodeT6246301373719474;
length 201.012;
};

object transformer {
configuration object transformer_configuration {
powerC_rating 50 kVA;
name T62463013737-CONFIG;
shunt_impedance 10000+10000j;
secondary_voltage 120.0;
connect_type SINGLE_PHASE_CENTER_TAPPED;
impedance 0.00033+0.0022j;
primary_voltage 7200.0;
powerB_rating 50 kVA;
powerA_rating 50 kVA;
};
phases 1N;
from nodeT6246301373719474;
name T62463013737;
to node62463013707T62463013737;
};

object load {
phases 1N;
load_class R;
name 62463013707;
parent node62463013707T62463013737;
constant_power_C 0;
constant_power_A 3.67901;
nominal_voltage 120;
constant_power_B 0;
};

object overhead_line {
configuration object line_configuration {
spacing object line_spacing {
name 18573-LINESPACING;
};
name 18573-LINECONFIG;
conductor_N object overhead_line_conductor {
resistance 1.69;
geometric_mean_radius 0.00418;
};
};
phases 1N;
from node1948319584;
name 18573;
to nodeT6246301683718573;
length 383.447;
};

object transformer {
configuration object transformer_configuration {
powerC_rating 50 kVA;
name T62463016837-CONFIG;
shunt_impedance 10000+10000j;
secondary_voltage 120.0;
connect_type SINGLE_PHASE_CENTER_TAPPED;
impedance 0.00033+0.0022j;
primary_voltage 7200.0;
powerB_rating 50 kVA;
powerA_rating 50 kVA;
};
phases 1N;
from nodeT6246301683718573;
name T62463016837;
to node62463016900T62463016837;
};

object load {
phases 1N;
load_class R;
name 62463016900;
parent node62463016900T62463016837;
constant_power_C 0;
constant_power_A 6.36635;
nominal_voltage 120;
constant_power_B 0;
};

object overhead_line {
configuration object line_configuration {
spacing object line_spacing {
name 19688-LINESPACING;
};
name 19688-LINECONFIG;
conductor_N object overhead_line_conductor {
resistance 1.69;
geometric_mean_radius 0.00418;
};
};
phases 1N;
from nodeT6246301683718573;
name 19688;
to nodeT6247419602319688;
length 321.462;
};

object transformer {
configuration object transformer_configuration {
powerC_rating 50 kVA;
name T62474196023-CONFIG;
shunt_impedance 10000+10000j;
secondary_voltage 120.0;
connect_type SINGLE_PHASE_CENTER_TAPPED;
impedance 0.00033+0.0022j;
primary_voltage 7200.0;
powerB_rating 50 kVA;
powerA_rating 50 kVA;
};
phases 1N;
from nodeT6247419602319688;
name T62474196023;
to node62474195011T62474196023;
};

object load {
phases 1N;
load_class R;
name 62474195011;
parent node62474195011T62474196023;
constant_power_C 0;
constant_power_A 4.97095;
nominal_voltage 120;
constant_power_B 0;
};

object load {
phases 1N;
load_class R;
name 62463016996;
parent node62474195011T62474196023;
constant_power_C 0;
constant_power_A 7.02242;
nominal_voltage 120;
constant_power_B 0;
};

object overhead_line {
configuration object line_configuration {
spacing object line_spacing {
name 19558-LINESPACING;
};
name 19558-LINECONFIG;
conductor_N object overhead_line_conductor {
resistance 1.69;
geometric_mean_radius 0.00418;
};
};
phases 1N;
from nodeT6247419602319688;
name 19558;
to nodeT6247419610319558;
length 211.036;
};

object transformer {
configuration object transformer_configuration {
powerC_rating 50 kVA;
name T62474196103-CONFIG;
shunt_impedance 10000+10000j;
secondary_voltage 120.0;
connect_type SINGLE_PHASE_CENTER_TAPPED;
impedance 0.00033+0.0022j;
primary_voltage 7200.0;
powerB_rating 50 kVA;
powerA_rating 50 kVA;
};
phases 1N;
from nodeT6247419610319558;
name T62474196103;
to node62474195151T62474196103;
};

object load {
phases 1N;
load_class R;
name 62474195151;
parent node62474195151T62474196103;
constant_power_C 0;
constant_power_A 5.79356;
nominal_voltage 120;
constant_power_B 0;
};

object overhead_line {
configuration object line_configuration {
spacing object line_spacing {
name 19560-LINESPACING;
};
name 19560-LINECONFIG;
conductor_N object overhead_line_conductor {
resistance 1.69;
geometric_mean_radius 0.00418;
};
};
phases 1N;
from nodeT6247419610319558;
name 19560;
to nodeT6247419621319560;
length 202.261;
};

object transformer {
configuration object transformer_configuration {
powerC_rating 50 kVA;
name T62474196213-CONFIG;
shunt_impedance 10000+10000j;
secondary_voltage 120.0;
connect_type SINGLE_PHASE_CENTER_TAPPED;
impedance 0.00033+0.0022j;
primary_voltage 7200.0;
powerB_rating 50 kVA;
powerA_rating 50 kVA;
};
phases 1N;
from nodeT6247419621319560;
name T62474196213;
to node62474195268T62474196213;
};

object load {
phases 1N;
load_class R;
name 62474195268;
parent node62474195268T62474196213;
constant_power_C 0;
constant_power_A 5.56393;
nominal_voltage 120;
constant_power_B 0;
};

object load {
phases 1N;
load_class R;
name 62474195267;
parent node62474195268T62474196213;
constant_power_C 0;
constant_power_A 0.116073;
nominal_voltage 120;
constant_power_B 0;
};

object overhead_line {
configuration object line_configuration {
spacing object line_spacing {
name 19683-LINESPACING;
};
name 19683-LINECONFIG;
conductor_N object overhead_line_conductor {
resistance 1.69;
geometric_mean_radius 0.00418;
};
};
phases 1N;
from nodeT6247419621319560;
name 19683;
to nodeT6247419635319683;
length 217.697;
};

object transformer {
configuration object transformer_configuration {
powerC_rating 50 kVA;
name T62474196353-CONFIG;
shunt_impedance 10000+10000j;
secondary_voltage 120.0;
connect_type SINGLE_PHASE_CENTER_TAPPED;
impedance 0.00033+0.0022j;
primary_voltage 7200.0;
powerB_rating 50 kVA;
powerA_rating 50 kVA;
};
phases 1N;
from nodeT6247419635319683;
name T62474196353;
to node62474196319T62474196353;
};

object load {
phases 1N;
load_class R;
name 62474196319;
parent node62474196319T62474196353;
constant_power_C 0;
constant_power_A 1.63512;
nominal_voltage 120;
constant_power_B 0;
};

object load {
phases 1N;
load_class R;
name 62474197334;
parent node62474196319T62474196353;
constant_power_C 0;
constant_power_A 9.00323;
nominal_voltage 120;
constant_power_B 0;
};

object overhead_line {
configuration object line_configuration {
spacing object line_spacing {
name 19682-LINESPACING;
};
name 19682-LINECONFIG;
conductor_N object overhead_line_conductor {
resistance 1.69;
geometric_mean_radius 0.00418;
};
};
phases 1N;
from nodeT6247419621319560;
name 19682;
to nodeT6247419721519682;
length 198.705;
};

object transformer {
configuration object transformer_configuration {
powerC_rating 50 kVA;
name T62474197215-CONFIG;
shunt_impedance 10000+10000j;
secondary_voltage 120.0;
connect_type SINGLE_PHASE_CENTER_TAPPED;
impedance 0.00033+0.0022j;
primary_voltage 7200.0;
powerB_rating 50 kVA;
powerA_rating 50 kVA;
};
phases 1N;
from nodeT6247419721519682;
name T62474197215;
to node62474197221T62474197215;
};

object load {
phases 1N;
load_class R;
name 62474197221;
parent node62474197221T62474197215;
constant_power_C 0;
constant_power_A 3.88592;
nominal_voltage 120;
constant_power_B 0;
};

object overhead_line {
configuration object line_configuration {
spacing object line_spacing {
name 19559-LINESPACING;
};
name 19559-LINECONFIG;
conductor_N object overhead_line_conductor {
resistance 1.69;
geometric_mean_radius 0.00418;
};
};
phases 1N;
from nodeT6247419610319558;
name 19559;
to nodeT6247419710519559;
length 202.235;
};

object transformer {
configuration object transformer_configuration {
powerC_rating 50 kVA;
name T62474197105-CONFIG;
shunt_impedance 10000+10000j;
secondary_voltage 120.0;
connect_type SINGLE_PHASE_CENTER_TAPPED;
impedance 0.00033+0.0022j;
primary_voltage 7200.0;
powerB_rating 50 kVA;
powerA_rating 50 kVA;
};
phases 1N;
from nodeT6247419710519559;
name T62474197105;
to node62474196191T62474197105;
};

object load {
phases 1N;
load_class R;
name 62474196191;
parent node62474196191T62474197105;
constant_power_C 0;
constant_power_A 4.27956;
nominal_voltage 120;
constant_power_B 0;
};

object overhead_line {
configuration object line_configuration {
spacing object line_spacing {
name 18572-LINESPACING;
};
name 18572-LINECONFIG;
conductor_N object overhead_line_conductor {
resistance 1.69;
geometric_mean_radius 0.00418;
};
};
phases 1N;
from node1948319584;
name 18572;
to nodeT6246301663418572;
length 141.214;
};

object transformer {
configuration object transformer_configuration {
powerC_rating 50 kVA;
name T62463016634-CONFIG;
shunt_impedance 10000+10000j;
secondary_voltage 120.0;
connect_type SINGLE_PHASE_CENTER_TAPPED;
impedance 0.00033+0.0022j;
primary_voltage 7200.0;
powerB_rating 50 kVA;
powerA_rating 50 kVA;
};
phases 1N;
from nodeT6246301663418572;
name T62463016634;
to node62463016539T62463016634;
};

object load {
phases 1N;
load_class R;
name 62463016539;
parent node62463016539T62463016634;
constant_power_C 0;
constant_power_A 6.54803;
nominal_voltage 120;
constant_power_B 0;
};

object overhead_line {
configuration object line_configuration {
spacing object line_spacing {
name 19815-LINESPACING;
};
name 19815-LINECONFIG;
conductor_N object overhead_line_conductor {
resistance 0.303;
geometric_mean_radius 0.0221;
};
};
phases 7N;
from nodeT6246301941419852;
name 19815;
to nodeT6246301824919815;
length 335.444;
};

object transformer {
configuration object transformer_configuration {
powerC_rating 50 kVA;
name T62463018249-CONFIG;
shunt_impedance 10000+10000j;
secondary_voltage 120.0;
connect_type SINGLE_PHASE_CENTER_TAPPED;
impedance 0.00033+0.0022j;
primary_voltage 7200.0;
powerB_rating 50 kVA;
powerA_rating 50 kVA;
};
phases 2N;
from nodeT6246301824919815;
name T62463018249;
to node62463018228T62463018249;
};

object load {
phases 2N;
load_class R;
name 62463018228;
parent node62463018228T62463018249;
constant_power_C 0;
constant_power_A 0;
nominal_voltage 120;
constant_power_B 1.20363;
};

object overhead_line {
configuration object line_configuration {
spacing object line_spacing {
name 19816-LINESPACING;
};
name 19816-LINECONFIG;
conductor_N object overhead_line_conductor {
resistance 1.69;
geometric_mean_radius 0.00418;
};
};
phases 3N;
from nodeT6246301824919815;
name 19816;
to nodeF581519816;
length 26.6007;
};

object fuse {
phases 3N;
from nodeF581519816;
name F5815;
current_limit 9999.0 A;
to node19563F5815;
};

object overhead_line {
configuration object line_configuration {
spacing object line_spacing {
name 19563-LINESPACING;
};
name 19563-LINECONFIG;
conductor_N object overhead_line_conductor {
resistance 1.69;
geometric_mean_radius 0.00418;
};
};
phases 3N;
from node19563F5815;
name 19563;
to nodeT6246301925319563;
length 243.066;
};

object transformer {
configuration object transformer_configuration {
powerC_rating 50 kVA;
name T62463019253-CONFIG;
shunt_impedance 10000+10000j;
secondary_voltage 120.0;
connect_type SINGLE_PHASE_CENTER_TAPPED;
impedance 0.00033+0.0022j;
primary_voltage 7200.0;
powerB_rating 50 kVA;
powerA_rating 50 kVA;
};
phases 3N;
from nodeT6246301925319563;
name T62463019253;
to node62463019285T62463019253;
};

object load {
phases 3N;
load_class R;
name 62463019285;
parent node62463019285T62463019253;
constant_power_C 4.53442;
constant_power_A 0;
nominal_voltage 120;
constant_power_B 0;
};

object overhead_line {
configuration object line_configuration {
spacing object line_spacing {
name 19237-LINESPACING;
};
name 19237-LINECONFIG;
conductor_N object overhead_line_conductor {
resistance 1.69;
geometric_mean_radius 0.00418;
};
};
phases 3N;
from nodeT6246301925319563;
name 19237;
to nodeT6246302120019237;
length 305.297;
};

object transformer {
configuration object transformer_configuration {
powerC_rating 50 kVA;
name T62463021200-CONFIG;
shunt_impedance 10000+10000j;
secondary_voltage 120.0;
connect_type SINGLE_PHASE_CENTER_TAPPED;
impedance 0.00033+0.0022j;
primary_voltage 7200.0;
powerB_rating 50 kVA;
powerA_rating 50 kVA;
};
phases 3N;
from nodeT6246302120019237;
name T62463021200;
to node62463021167T62463021200;
};

object load {
phases 3N;
load_class R;
name 62463021167;
parent node62463021167T62463021200;
constant_power_C 3.75723;
constant_power_A 0;
nominal_voltage 120;
constant_power_B 0;
};

object overhead_line {
configuration object line_configuration {
spacing object line_spacing {
name 19765-LINESPACING;
};
name 19765-LINECONFIG;
conductor_N object overhead_line_conductor {
resistance 0.303;
geometric_mean_radius 0.0221;
};
};
phases 7N;
from nodeT6246301824919815;
name 19765;
to node1974819765;
length 386.822;
};

object overhead_line {
configuration object line_configuration {
spacing object line_spacing {
name 19748-LINESPACING;
};
name 19748-LINECONFIG;
conductor_N object overhead_line_conductor {
resistance 0.303;
geometric_mean_radius 0.0221;
};
};
phases 7N;
from node1974819765;
name 19748;
to nodeT6246301704519748;
length 137.975;
};

object transformer {
configuration object transformer_configuration {
powerC_rating 50 kVA;
name T62463017045-CONFIG;
shunt_impedance 10000+10000j;
secondary_voltage 120.0;
connect_type SINGLE_PHASE_CENTER_TAPPED;
impedance 0.00033+0.0022j;
primary_voltage 7200.0;
powerB_rating 50 kVA;
powerA_rating 50 kVA;
};
phases 2N;
from nodeT6246301704519748;
name T62463017045;
to node62463017062T62463017045;
};

object load {
phases 2N;
load_class R;
name 62463017062;
parent node62463017062T62463017045;
constant_power_C 0;
constant_power_A 0;
nominal_voltage 120;
constant_power_B 2.3366;
};

object overhead_line {
configuration object line_configuration {
spacing object line_spacing {
name 19740-LINESPACING;
};
name 19740-LINECONFIG;
conductor_N object overhead_line_conductor {
resistance 1.69;
geometric_mean_radius 0.00418;
};
};
phases 1N;
from nodeT6246301704519748;
name 19740;
to nodeF758519740;
length 25.0001;
};

object fuse {
phases 1N;
from nodeF758519740;
name F7585;
current_limit 9999.0 A;
to node19714F7585;
};

object overhead_line {
configuration object line_configuration {
spacing object line_spacing {
name 19714-LINESPACING;
};
name 19714-LINECONFIG;
conductor_N object overhead_line_conductor {
resistance 1.69;
geometric_mean_radius 0.00418;
};
};
phases 1N;
from node19714F7585;
name 19714;
to nodeT6246301607719714;
length 118.283;
};

object transformer {
configuration object transformer_configuration {
powerC_rating 50 kVA;
name T62463016077-CONFIG;
shunt_impedance 10000+10000j;
secondary_voltage 120.0;
connect_type SINGLE_PHASE_CENTER_TAPPED;
impedance 0.00033+0.0022j;
primary_voltage 7200.0;
powerB_rating 50 kVA;
powerA_rating 50 kVA;
};
phases 1N;
from nodeT6246301607719714;
name T62463016077;
to node62463016038T62463016077;
};

object load {
phases 1N;
load_class R;
name 62463016038;
parent node62463016038T62463016077;
constant_power_C 0;
constant_power_A 2.39716;
nominal_voltage 120;
constant_power_B 0;
};

object overhead_line {
configuration object line_configuration {
spacing object line_spacing {
name 18588-LINESPACING;
};
name 18588-LINECONFIG;
conductor_N object overhead_line_conductor {
resistance 1.69;
geometric_mean_radius 0.00418;
};
};
phases 1N;
from nodeT6246301607719714;
name 18588;
to node1950718588;
length 218.301;
};

object overhead_line {
configuration object line_configuration {
spacing object line_spacing {
name 19507-LINESPACING;
};
name 19507-LINECONFIG;
conductor_N object overhead_line_conductor {
resistance 1.69;
geometric_mean_radius 0.00418;
};
};
phases 1N;
from node1950718588;
name 19507;
to nodeT6246301405019507;
length 286.217;
};

object transformer {
configuration object transformer_configuration {
powerC_rating 50 kVA;
name T62463014050-CONFIG;
shunt_impedance 10000+10000j;
secondary_voltage 120.0;
connect_type SINGLE_PHASE_CENTER_TAPPED;
impedance 0.00033+0.0022j;
primary_voltage 7200.0;
powerB_rating 50 kVA;
powerA_rating 50 kVA;
};
phases 1N;
from nodeT6246301405019507;
name T62463014050;
to node62463074975T62463014050;
};

object load {
phases 1N;
load_class R;
name 62463074975;
parent node62463074975T62463014050;
constant_power_C 0;
constant_power_A 3.57051;
nominal_voltage 120;
constant_power_B 0;
};

object overhead_line {
configuration object line_configuration {
spacing object line_spacing {
name 19561-LINESPACING;
};
name 19561-LINECONFIG;
conductor_N object overhead_line_conductor {
resistance 2.44;
geometric_mean_radius 0.00479;
};
};
phases 1N;
from nodeT6246301704519748;
name 19561;
to nodeT6246301620119561;
length 428.982;
};

object transformer {
configuration object transformer_configuration {
powerC_rating 50 kVA;
name T62463016201-CONFIG;
shunt_impedance 10000+10000j;
secondary_voltage 120.0;
connect_type SINGLE_PHASE_CENTER_TAPPED;
impedance 0.00033+0.0022j;
primary_voltage 7200.0;
powerB_rating 50 kVA;
powerA_rating 50 kVA;
};
phases 1N;
from nodeT6246301620119561;
name T62463016201;
to node62463016251T62463016201;
};

object load {
phases 1N;
load_class R;
name 62463016251;
parent node62463016251T62463016201;
constant_power_C 0;
constant_power_A 2.66968;
nominal_voltage 120;
constant_power_B 0;
};

object load {
phases 1N;
load_class R;
name 62463015244;
parent node62463016251T62463016201;
constant_power_C 0;
constant_power_A 4.69086;
nominal_voltage 120;
constant_power_B 0;
};

object overhead_line {
configuration object line_configuration {
spacing object line_spacing {
name 19731-LINESPACING;
};
name 19731-LINECONFIG;
conductor_N object overhead_line_conductor {
resistance 0.303;
geometric_mean_radius 0.0221;
};
};
phases 7N;
from nodeT6246301704519748;
name 19731;
to node5801719731;
length 155.789;
};

object underground_line {
configuration object line_configuration {
spacing object line_spacing {
name 58017-LINESPACING;
};
name 58017-LINECONFIG;
};
phases 7;
from node5801719731;
name 58017;
to nodeF758658017;
length 24.9999;
};

object fuse {
phases 7N;
from nodeF758658017;
name F7586;
current_limit 9999.0 A;
to node58021F7586;
};

object underground_line {
configuration object line_configuration {
spacing object line_spacing {
name 58021-LINESPACING;
};
name 58021-LINECONFIG;
};
phases 7;
from node58021F7586;
name 58021;
to nodeT6246307892258021;
length 201.626;
};

object transformer {
configuration object transformer_configuration {
powerC_rating 50 kVA;
name T62463078922-CONFIG;
shunt_impedance 10000+10000j;
secondary_voltage 120.0;
connect_type SINGLE_PHASE_CENTER_TAPPED;
impedance 0.00033+0.0022j;
primary_voltage 7200.0;
powerB_rating 50 kVA;
powerA_rating 50 kVA;
};
phases 7N;
from nodeT6246307892258021;
name T62463078922;
to node62463078953T62463078922;
};

object load {
phases 7N;
load_class R;
name 62463078953;
parent node62463078953T62463078922;
constant_power_C 3.07258;
constant_power_A 3.07258;
nominal_voltage 120;
constant_power_B 3.07258;
};

object overhead_line {
configuration object line_configuration {
spacing object line_spacing {
name 19589-LINESPACING;
};
name 19589-LINECONFIG;
conductor_N object overhead_line_conductor {
resistance 0.303;
geometric_mean_radius 0.0221;
};
};
phases 7N;
from node5801719731;
name 19589;
to nodeT6246307689919589;
length 172.639;
};

object transformer {
configuration object transformer_configuration {
powerC_rating 50 kVA;
name T62463076899-CONFIG;
shunt_impedance 10000+10000j;
secondary_voltage 120.0;
connect_type SINGLE_PHASE_CENTER_TAPPED;
impedance 0.00033+0.0022j;
primary_voltage 7200.0;
powerB_rating 50 kVA;
powerA_rating 50 kVA;
};
phases 2N;
from nodeT6246307689919589;
name T62463076899;
to node62463076992T62463076899;
};

object load {
phases 2N;
load_class R;
name 62463076992;
parent node62463076992T62463076899;
constant_power_C 0;
constant_power_A 0;
nominal_voltage 120;
constant_power_B 2.38959;
};

object load {
phases 2N;
load_class R;
name 62463076991;
parent node62463076992T62463076899;
constant_power_C 0;
constant_power_A 0;
nominal_voltage 120;
constant_power_B 0.961387;
};

object load {
phases 2N;
load_class R;
name 62463076869;
parent node62463076992T62463076899;
constant_power_C 0;
constant_power_A 0;
nominal_voltage 120;
constant_power_B 5.06179;
};

object overhead_line {
configuration object line_configuration {
spacing object line_spacing {
name 19538-LINESPACING;
};
name 19538-LINECONFIG;
conductor_N object overhead_line_conductor {
resistance 0.303;
geometric_mean_radius 0.0221;
};
};
phases 7N;
from nodeT6246307689919589;
name 19538;
to nodeT6246307566519538;
length 561.815;
};

object overhead_line {
configuration object line_configuration {
spacing object line_spacing {
name 19582-LINESPACING;
};
name 19582-LINECONFIG;
conductor_N object overhead_line_conductor {
resistance 2.44;
geometric_mean_radius 0.00479;
};
};
phases 1N;
from nodeT6246307566519538;
name 19582;
to nodeF758719582;
length 22.8798;
};

object fuse {
phases 1N;
from nodeF758719582;
name F7587;
current_limit 9999.0 A;
to node19196F7587;
};

object overhead_line {
configuration object line_configuration {
spacing object line_spacing {
name 19196-LINESPACING;
};
name 19196-LINECONFIG;
conductor_N object overhead_line_conductor {
resistance 2.44;
geometric_mean_radius 0.00479;
};
};
phases 1N;
from node19196F7587;
name 19196;
to node1951919196;
length 64.7094;
};

object overhead_line {
configuration object line_configuration {
spacing object line_spacing {
name 19519-LINESPACING;
};
name 19519-LINECONFIG;
conductor_N object overhead_line_conductor {
resistance 2.44;
geometric_mean_radius 0.00479;
};
};
phases 1N;
from node1951919196;
name 19519;
to nodeT6246307477519519;
length 186.866;
};

object transformer {
configuration object transformer_configuration {
powerC_rating 50 kVA;
name T62463074775-CONFIG;
shunt_impedance 10000+10000j;
secondary_voltage 120.0;
connect_type SINGLE_PHASE_CENTER_TAPPED;
impedance 0.00033+0.0022j;
primary_voltage 7200.0;
powerB_rating 50 kVA;
powerA_rating 50 kVA;
};
phases 1N;
from nodeT6246307477519519;
name T62463074775;
to node62463074798T62463074775;
};

object load {
phases 1N;
load_class R;
name 62463074798;
parent node62463074798T62463074775;
constant_power_C 0;
constant_power_A 4.83469;
nominal_voltage 120;
constant_power_B 0;
};

object load {
phases 1N;
load_class R;
name 62463074872;
parent node62463074798T62463074775;
constant_power_C 0;
constant_power_A 0.141306;
nominal_voltage 120;
constant_power_B 0;
};

object overhead_line {
configuration object line_configuration {
spacing object line_spacing {
name 19186-LINESPACING;
};
name 19186-LINECONFIG;
conductor_N object overhead_line_conductor {
resistance 0.303;
geometric_mean_radius 0.0221;
};
};
phases 7N;
from nodeT6246307566519538;
name 19186;
to node1950119186;
length 169.689;
};

object overhead_line {
configuration object line_configuration {
spacing object line_spacing {
name 19501-LINESPACING;
};
name 19501-LINECONFIG;
conductor_N object overhead_line_conductor {
resistance 0.303;
geometric_mean_radius 0.0221;
};
};
phases 7N;
from node1950119186;
name 19501;
to node1934519501;
length 293.041;
};

object overhead_line {
configuration object line_configuration {
spacing object line_spacing {
name 19345-LINESPACING;
};
name 19345-LINECONFIG;
conductor_N object overhead_line_conductor {
resistance 0.303;
geometric_mean_radius 0.0221;
};
};
phases 7N;
from node1934519501;
name 19345;
to node1934419345;
length 421.542;
};

object overhead_line {
configuration object line_configuration {
spacing object line_spacing {
name 19344-LINESPACING;
};
name 19344-LINECONFIG;
conductor_N object overhead_line_conductor {
resistance 1.69;
geometric_mean_radius 0.00418;
};
};
phases 3N;
from node1934419345;
name 19344;
to nodeF758919344;
length 25;
};

object fuse {
phases 3N;
from nodeF758919344;
name F7589;
current_limit 9999.0 A;
to node19353F7589;
};

object overhead_line {
configuration object line_configuration {
spacing object line_spacing {
name 19353-LINESPACING;
};
name 19353-LINECONFIG;
conductor_N object overhead_line_conductor {
resistance 1.69;
geometric_mean_radius 0.00418;
};
};
phases 3N;
from node19353F7589;
name 19353;
to nodeT6246307416519353;
length 235.932;
};

object transformer {
configuration object transformer_configuration {
powerC_rating 50 kVA;
name T62463074165-CONFIG;
shunt_impedance 10000+10000j;
secondary_voltage 120.0;
connect_type SINGLE_PHASE_CENTER_TAPPED;
impedance 0.00033+0.0022j;
primary_voltage 7200.0;
powerB_rating 50 kVA;
powerA_rating 50 kVA;
};
phases 3N;
from nodeT6246307416519353;
name T62463074165;
to node62463074197T62463074165;
};

object load {
phases 3N;
load_class R;
name 62463074197;
parent node62463074197T62463074165;
constant_power_C 2.69744;
constant_power_A 0;
nominal_voltage 120;
constant_power_B 0;
};

object overhead_line {
configuration object line_configuration {
spacing object line_spacing {
name 19512-LINESPACING;
};
name 19512-LINECONFIG;
conductor_N object overhead_line_conductor {
resistance 1.69;
geometric_mean_radius 0.00418;
};
};
phases 3N;
from nodeT6246307416519353;
name 19512;
to nodeT6246307416119512;
length 78.2066;
};

object transformer {
configuration object transformer_configuration {
powerC_rating 50 kVA;
name T62463074161-CONFIG;
shunt_impedance 10000+10000j;
secondary_voltage 120.0;
connect_type SINGLE_PHASE_CENTER_TAPPED;
impedance 0.00033+0.0022j;
primary_voltage 7200.0;
powerB_rating 50 kVA;
powerA_rating 50 kVA;
};
phases 3N;
from nodeT6246307416119512;
name T62463074161;
to node62463073088T62463074161;
};

object load {
phases 3N;
load_class R;
name 62463073088;
parent node62463073088T62463074161;
constant_power_C 2.17258;
constant_power_A 0;
nominal_voltage 120;
constant_power_B 0;
};

object load {
phases 3N;
load_class R;
name 62463074161;
parent node62463073088T62463074161;
constant_power_C 0.787278;
constant_power_A 0;
nominal_voltage 120;
constant_power_B 0;
};

object overhead_line {
configuration object line_configuration {
spacing object line_spacing {
name 19511-LINESPACING;
};
name 19511-LINECONFIG;
conductor_N object overhead_line_conductor {
resistance 1.69;
geometric_mean_radius 0.00418;
};
};
phases 3N;
from nodeT6246307416119512;
name 19511;
to node1920219511;
length 187.008;
};

object overhead_line {
configuration object line_configuration {
spacing object line_spacing {
name 19202-LINESPACING;
};
name 19202-LINECONFIG;
conductor_N object overhead_line_conductor {
resistance 1.69;
geometric_mean_radius 0.00418;
};
};
phases 3N;
from node1920219511;
name 19202;
to node1970519202;
length 268.521;
};

object overhead_line {
configuration object line_configuration {
spacing object line_spacing {
name 19705-LINESPACING;
};
name 19705-LINECONFIG;
conductor_N object overhead_line_conductor {
resistance 1.69;
geometric_mean_radius 0.00418;
};
};
phases 3N;
from node1970519202;
name 19705;
to node1973319705;
length 144.519;
};

object overhead_line {
configuration object line_configuration {
spacing object line_spacing {
name 19733-LINESPACING;
};
name 19733-LINECONFIG;
conductor_N object overhead_line_conductor {
resistance 1.69;
geometric_mean_radius 0.00418;
};
};
phases 3N;
from node1973319705;
name 19733;
to node1979319733;
length 159.822;
};

object overhead_line {
configuration object line_configuration {
spacing object line_spacing {
name 19793-LINESPACING;
};
name 19793-LINECONFIG;
conductor_N object overhead_line_conductor {
resistance 1.69;
geometric_mean_radius 0.00418;
};
};
phases 3N;
from node1979319733;
name 19793;
to node1957319793;
length 192.016;
};

object overhead_line {
configuration object line_configuration {
spacing object line_spacing {
name 19573-LINESPACING;
};
name 19573-LINECONFIG;
conductor_N object overhead_line_conductor {
resistance 1.69;
geometric_mean_radius 0.00418;
};
};
phases 3N;
from node1957319793;
name 19573;
to nodeT6246307912719573;
length 242.98;
};

object transformer {
configuration object transformer_configuration {
powerC_rating 50 kVA;
name T62463079127-CONFIG;
shunt_impedance 10000+10000j;
secondary_voltage 120.0;
connect_type SINGLE_PHASE_CENTER_TAPPED;
impedance 0.00033+0.0022j;
primary_voltage 7200.0;
powerB_rating 50 kVA;
powerA_rating 50 kVA;
};
phases 3N;
from nodeT6246307912719573;
name T62463079127;
to node62463079175T62463079127;
};

object load {
phases 3N;
load_class R;
name 62463079175;
parent node62463079175T62463079127;
constant_power_C 2.91444;
constant_power_A 0;
nominal_voltage 120;
constant_power_B 0;
};

object overhead_line {
configuration object line_configuration {
spacing object line_spacing {
name 19792-LINESPACING;
};
name 19792-LINECONFIG;
conductor_N object overhead_line_conductor {
resistance 1.69;
geometric_mean_radius 0.00418;
};
};
phases 3N;
from node1979319733;
name 19792;
to nodeT6246313995019792;
length 336;
};

object transformer {
configuration object transformer_configuration {
powerC_rating 50 kVA;
name T62463139950-CONFIG;
shunt_impedance 10000+10000j;
secondary_voltage 120.0;
connect_type SINGLE_PHASE_CENTER_TAPPED;
impedance 0.00033+0.0022j;
primary_voltage 7200.0;
powerB_rating 50 kVA;
powerA_rating 50 kVA;
};
phases 3N;
from nodeT6246313995019792;
name T62463139950;
to node62463139865T62463139950;
};

object load {
phases 3N;
load_class R;
name 62463139865;
parent node62463139865T62463139950;
constant_power_C 2.54099;
constant_power_A 0;
nominal_voltage 120;
constant_power_B 0;
};

object overhead_line {
configuration object line_configuration {
spacing object line_spacing {
name 19198-LINESPACING;
};
name 19198-LINECONFIG;
conductor_N object overhead_line_conductor {
resistance 1.69;
geometric_mean_radius 0.00418;
};
};
phases 3N;
from node1920219511;
name 19198;
to nodeT6246307513319198;
length 115.812;
};

object transformer {
configuration object transformer_configuration {
powerC_rating 50 kVA;
name T62463075133-CONFIG;
shunt_impedance 10000+10000j;
secondary_voltage 120.0;
connect_type SINGLE_PHASE_CENTER_TAPPED;
impedance 0.00033+0.0022j;
primary_voltage 7200.0;
powerB_rating 50 kVA;
powerA_rating 50 kVA;
};
phases 3N;
from nodeT6246307513319198;
name T62463075133;
to node62463075194T62463075133;
};

object load {
phases 3N;
load_class R;
name 62463075194;
parent node62463075194T62463075133;
constant_power_C 4.56722;
constant_power_A 0;
nominal_voltage 120;
constant_power_B 0;
};

object overhead_line {
configuration object line_configuration {
spacing object line_spacing {
name 19384-LINESPACING;
};
name 19384-LINECONFIG;
conductor_N object overhead_line_conductor {
resistance 0.303;
geometric_mean_radius 0.0221;
};
};
phases 7N;
from node1934419345;
name 19384;
to nodeT6246307203119384;
length 546.446;
};

object transformer {
configuration object transformer_configuration {
powerC_rating 50 kVA;
name T62463072031-CONFIG;
shunt_impedance 10000+10000j;
secondary_voltage 120.0;
connect_type SINGLE_PHASE_CENTER_TAPPED;
impedance 0.00033+0.0022j;
primary_voltage 7200.0;
powerB_rating 50 kVA;
powerA_rating 50 kVA;
};
phases 2N;
from nodeT6246307203119384;
name T62463072031;
to node62463133906T62463072031;
};

object load {
phases 2N;
load_class R;
name 62463133906;
parent node62463133906T62463072031;
constant_power_C 0;
constant_power_A 0;
nominal_voltage 120;
constant_power_B 5.29142;
};

object overhead_line {
configuration object line_configuration {
spacing object line_spacing {
name 70924-LINESPACING;
};
name 70924-LINECONFIG;
conductor_N object overhead_line_conductor {
resistance 0.303;
geometric_mean_radius 0.0221;
};
};
phases 7N;
from nodeT6246307203119384;
name 70924;
to node7092570924;
length 131.068;
};

object overhead_line {
configuration object line_configuration {
spacing object line_spacing {
name 70925-LINESPACING;
};
name 70925-LINECONFIG;
conductor_N object overhead_line_conductor {
resistance 0.303;
geometric_mean_radius 0.0221;
};
};
phases 7N;
from node7092570924;
name 70925;
to nodeSW1250-Bx170925;
length 222.516;
};

object switch {
status CLOSED;
phases 7N;
from nodeSW1250-Bx170925;
name SW1250-Bx1;
to nodeSW1250-Ax1SW1250-Bx1;
};

object switch {
status CLOSED;
phases 7N;
from nodeSW1250-Ax1SW1250-Bx1;
name SW1250-Ax1;
to node19281SW1250-Ax1;
};

object overhead_line {
configuration object line_configuration {
spacing object line_spacing {
name 19281-LINESPACING;
};
name 19281-LINECONFIG;
conductor_N object overhead_line_conductor {
resistance 0.303;
geometric_mean_radius 0.0221;
};
};
phases 7N;
from node19281SW1250-Ax1;
name 19281;
to node1908919281;
length 25.0002;
};

object overhead_line {
configuration object line_configuration {
spacing object line_spacing {
name 19089-LINESPACING;
};
name 19089-LINECONFIG;
conductor_N object overhead_line_conductor {
resistance 0.303;
geometric_mean_radius 0.0221;
};
};
phases 7N;
from node1908919281;
name 19089;
to nodeT6246313079419089;
length 226.378;
};

object transformer {
configuration object transformer_configuration {
powerC_rating 50 kVA;
name T62463130794-CONFIG;
shunt_impedance 10000+10000j;
secondary_voltage 120.0;
connect_type SINGLE_PHASE_CENTER_TAPPED;
impedance 0.00033+0.0022j;
primary_voltage 7200.0;
powerB_rating 50 kVA;
powerA_rating 50 kVA;
};
phases 1N;
from nodeT6246313079419089;
name T62463130794;
to node62463130850T62463130794;
};

object load {
phases 1N;
load_class R;
name 62463130850;
parent node62463130850T62463130794;
constant_power_C 0;
constant_power_A 4.71862;
nominal_voltage 120;
constant_power_B 0;
};

object overhead_line {
configuration object line_configuration {
spacing object line_spacing {
name 19165-LINESPACING;
};
name 19165-LINECONFIG;
conductor_N object overhead_line_conductor {
resistance 0.303;
geometric_mean_radius 0.0221;
};
};
phases 7N;
from nodeT6246313079419089;
name 19165;
to node1900919165;
length 222.764;
};

object overhead_line {
configuration object line_configuration {
spacing object line_spacing {
name 19009-LINESPACING;
};
name 19009-LINECONFIG;
conductor_N object overhead_line_conductor {
resistance 0.303;
geometric_mean_radius 0.0221;
};
};
phases 7N;
from node1900919165;
name 19009;
to node1875419009;
length 489.892;
};

object overhead_line {
configuration object line_configuration {
spacing object line_spacing {
name 18754-LINESPACING;
};
name 18754-LINECONFIG;
conductor_N object overhead_line_conductor {
resistance 0.303;
geometric_mean_radius 0.0221;
};
};
phases 7N;
from node1875419009;
name 18754;
to node1875318754;
length 558.193;
};

object overhead_line {
configuration object line_configuration {
spacing object line_spacing {
name 18753-LINESPACING;
};
name 18753-LINECONFIG;
conductor_N object overhead_line_conductor {
resistance 0.303;
geometric_mean_radius 0.0221;
};
};
phases 7N;
from node1875318754;
name 18753;
to node1875218753;
length 76.3128;
};

object overhead_line {
configuration object line_configuration {
spacing object line_spacing {
name 18752-LINESPACING;
};
name 18752-LINECONFIG;
conductor_N object overhead_line_conductor {
resistance 0.303;
geometric_mean_radius 0.0221;
};
};
phases 7N;
from node1875218753;
name 18752;
to nodeT6246312914618752;
length 329.719;
};

object transformer {
configuration object transformer_configuration {
powerC_rating 50 kVA;
name T62463129146-CONFIG;
shunt_impedance 10000+10000j;
secondary_voltage 120.0;
connect_type SINGLE_PHASE_CENTER_TAPPED;
impedance 0.00033+0.0022j;
primary_voltage 7200.0;
powerB_rating 50 kVA;
powerA_rating 50 kVA;
};
phases 2N;
from nodeT6246312914618752;
name T62463129146;
to node62463129089T62463129146;
};

object load {
phases 2N;
load_class R;
name 62463129089;
parent node62463129089T62463129146;
constant_power_C 0;
constant_power_A 0;
nominal_voltage 120;
constant_power_B 0.782231;
};

object load {
phases 2N;
load_class R;
name 62463129140;
parent node62463129089T62463129146;
constant_power_C 0;
constant_power_A 0;
nominal_voltage 120;
constant_power_B 0.0908397;
};

object load {
phases 2N;
load_class R;
name 62463129029;
parent node62463129089T62463129146;
constant_power_C 0;
constant_power_A 0;
nominal_voltage 120;
constant_power_B 0;
};

object overhead_line {
configuration object line_configuration {
...